examples/opendss/PVSystems.dss
! PV Scenario for 1782.322 kW total size, Sample 0 
==============================================PV SCENARIO FILE====================================

new pvsystem.Load.80_27893872286879_13_084722259449933_load_pv phases=1 bus1=80_2790506_13_0846497_node_secondary_18.1.0 kv=0.24 irradiance=1 pmpp=0.12 kva=0.12 conn=wye %cutin=0.1 %cutout=0.1 vmaxpu=1.2
new pvsystem.Load.80_27573676046116_13_09184622042019_load_pv phases=1 bus1=80_27566749181237_13_091974180677301_node_secondary_15.1.0 kv=0.24 irradiance=1 pmpp=0.9 kva=0.9 conn=wye %cutin=0.1 %cutout=0.1 vmaxpu=1.2
new pvsystem.Load.80_27769449823951_13_088646380427964_load_pv phases=1 bus1=80_27785488000559_13_088594911822883__secondary_9_node.2.0 kv=0.24 irradiance=1 pmpp=1.725 kva=1.725 conn=wye %cutin=0.1 %cutout=0.1 vmaxpu=1.2
new pvsystem.Load.80_27152319999999_13_077594200000002_load_pv phases=1 bus1=80_27155086152538_13_077514745669724_node_secondary_16.1.0 kv=0.24 irradiance=1 pmpp=0.63 kva=0.63 conn=wye %cutin=0.1 %cutout=0.1 vmaxpu=1.2
new pvsystem.Load.80_2670441_13_08130755_load_pv phases=1 bus1=80_26691102035144_13_081429090690847_node_secondary_6.1.0 kv=0.24 irradiance=1 pmpp=1.44 kva=1.44 conn=wye %cutin=0.1 %cutout=0.1 vmaxpu=1.2
new pvsystem.Load.80_26671199999998_13_087435200000003_load_pv phases=1 bus1=80_26680193095034_13_08732145722115_node_secondary_4.3.0 kv=0.24 irradiance=1 pmpp=0.795 kva=0.795 conn=wye %cutin=0.1 %cutout=0.1 vmaxpu=1.2
new pvsystem.Load.80_27766514999999_13_091369100000001_load_pv phases=1 bus1=80_27764807549914_13_091466868909794__secondary_17_node.1.0 kv=0.24 irradiance=1 pmpp=2.085 kva=2.085 conn=wye %cutin=0.1 %cutout=0.1 vmaxpu=1.2
new pvsystem.Load.80_26464392660085_13_092453153257528_load_pv phases=1 bus1=80_2647557_13_0923146_node_secondary_5.2.0 kv=0.24 irradiance=1 pmpp=0.9 kva=0.9 conn=wye %cutin=0.1 %cutout=0.1 vmaxpu=1.2
new pvsystem.Load.80_26135298472633_13_074897124886531_load_pv phases=1 bus1=80_26121505333333_13_074972295857883__secondary_7_node.2.0 kv=0.24 irradiance=1 pmpp=1.14 kva=1.14 conn=wye %cutin=0.1 %cutout=0.1 vmaxpu=1.2
new pvsystem.Load.80_2709829_13_0774475_load_pv phases=1 bus1=80_27084418622435_13_077370105966915_node_secondary_16.1.0 kv=0.24 irradiance=1 pmpp=0.63 kva=0.63 conn=wye %cutin=0.1 %cutout=0.1 vmaxpu=1.2
new pvsystem.Load.80_2610129_13_0918911_load_pv phases=1 bus1=80_2608777_13_091840439047358__secondary_8_node.3.0 kv=0.24 irradiance=1 pmpp=0.765 kva=0.765 conn=wye %cutin=0.1 %cutout=0.1 vmaxpu=1.2
new pvsystem.Load.80_26875625023509_13_082678587193316_load_pv phases=1 bus1=80_26850060706371_13_082760233998915_node_secondary_1.3.0 kv=0.24 irradiance=1 pmpp=0.405 kva=0.405 conn=wye %cutin=0.1 %cutout=0.1 vmaxpu=1.2
new pvsystem.Load.80_26225462986814_13_086825029725658_load_pv phases=1 bus1=80_2621371317804_13_08669258__secondary_12_node.2.0 kv=0.24 irradiance=1 pmpp=1.635 kva=1.635 conn=wye %cutin=0.1 %cutout=0.1 vmaxpu=1.2
new pvsystem.Load.80_263389877785_13_090785053341891_load_pv phases=1 bus1=80_2632636591405_13_090841601188925_node_secondary_8.1.0 kv=0.24 irradiance=1 pmpp=0.735 kva=0.735 conn=wye %cutin=0.1 %cutout=0.1 vmaxpu=1.2
new pvsystem.Load.80_2761845_13_0861833_load_pv phases=1 bus1=80_27627536187643_13_08603389347493_node_secondary_2.1.0 kv=0.24 irradiance=1 pmpp=1.095 kva=1.095 conn=wye %cutin=0.1 %cutout=0.1 vmaxpu=1.2
new pvsystem.Load.80_27033829999999_13_0838215_load_pv phases=1 bus1=80_2703638057237_13_083941263317605_node_secondary_1.1.0 kv=0.24 irradiance=1 pmpp=1.395 kva=1.395 conn=wye %cutin=0.1 %cutout=0.1 vmaxpu=1.2
new pvsystem.Load.80_26311552266382_13_084377993445417_load_pv phases=1 bus1=80_26323512497547_13_084312213382667_node_secondary_10.1.0 kv=0.24 irradiance=1 pmpp=1.695 kva=1.695 conn=wye %cutin=0.1 %cutout=0.1 vmaxpu=1.2
new pvsystem.Load.80_26968031089633_13_075908371339304_load_pv phases=1 bus1=80_26955157930257_13_07583891145437__secondary_16_node.2.0 kv=0.24 irradiance=1 pmpp=1.68 kva=1.68 conn=wye %cutin=0.1 %cutout=0.1 vmaxpu=1.2
new pvsystem.Load.80_26747167387352_13_087178290772023_load_pv phases=1 bus1=80_26741431906743_13_08729659936283_node_secondary_4.2.0 kv=0.24 irradiance=1 pmpp=0.945 kva=0.945 conn=wye %cutin=0.1 %cutout=0.1 vmaxpu=1.2
new pvsystem.Load.80_26338734999999_13_084770800000001_load_pv phases=1 bus1=80_2632762_13_0847652_node_secondary_19.1.0 kv=0.24 irradiance=1 pmpp=0.705 kva=0.705 conn=wye %cutin=0.1 %cutout=0.1 vmaxpu=1.2
new pvsystem.Load.80_27004847440988_13_083273018302117_load_pv phases=1 bus1=80_27006817537524_13_08342497710386_node_secondary_1.2.0 kv=0.24 irradiance=1 pmpp=1.05 kva=1.05 conn=wye %cutin=0.1 %cutout=0.1 vmaxpu=1.2
new pvsystem.Load.80_2761846714497_13_092122839345315_load_pv phases=1 bus1=80_2761519_13_0922051_node_secondary_15.3.0 kv=0.24 irradiance=1 pmpp=0.54 kva=0.54 conn=wye %cutin=0.1 %cutout=0.1 vmaxpu=1.2
new pvsystem.Load.80_27777530000002_13_092717_load_pv phases=1 bus1=80_27764807549914_13_092717__secondary_17_node.3.0 kv=0.24 irradiance=1 pmpp=2.835 kva=2.835 conn=wye %cutin=0.1 %cutout=0.1 vmaxpu=1.2
new pvsystem.Load.80_27698210000001_13_09184175_load_pv phases=1 bus1=80_27685062240174_13_092021500274612_node_secondary_15.2.0 kv=0.24 irradiance=1 pmpp=2.415 kva=2.415 conn=wye %cutin=0.1 %cutout=0.1 vmaxpu=1.2
new pvsystem.Load.80_2630453_13_08891895_load_pv phases=1 bus1=80_2630386556157_13_089032793333333__secondary_12_node.1.0 kv=0.24 irradiance=1 pmpp=3.75 kva=3.75 conn=wye %cutin=0.1 %cutout=0.1 vmaxpu=1.2
new pvsystem.Load.80_27031413049514_13_077066401810043_load_pv phases=1 bus1=80_2701881_13_0771032_node_secondary_16.1.0 kv=0.24 irradiance=1 pmpp=0.945 kva=0.945 conn=wye %cutin=0.1 %cutout=0.1 vmaxpu=1.2
new pvsystem.Load.80_27790854999999_13_09141455_load_pv phases=1 bus1=80_27802181823017_13_091274033938051_node_secondary_17.2.0 kv=0.24 irradiance=1 pmpp=2.25 kva=2.25 conn=wye %cutin=0.1 %cutout=0.1 vmaxpu=1.2
new pvsystem.Load.80_27873810000001_13_08944455_load_pv phases=1 bus1=80_2789018_13_0894298_node_secondary_9.3.0 kv=0.24 irradiance=1 pmpp=0.42 kva=0.42 conn=wye %cutin=0.1 %cutout=0.1 vmaxpu=1.2
new pvsystem.Load.80_26399561240596_13_092263921148911_load_pv phases=1 bus1=80_2640959002046_13_092121896233275_node_secondary_8.1.0 kv=0.24 irradiance=1 pmpp=0.24 kva=0.24 conn=wye %cutin=0.1 %cutout=0.1 vmaxpu=1.2
new pvsystem.Load.80_26328177683148_13_076659339528064_load_pv phases=1 bus1=80_26316584534585_13_076715650689922_node_secondary_7.3.0 kv=0.24 irradiance=1 pmpp=0.63 kva=0.63 conn=wye %cutin=0.1 %cutout=0.1 vmaxpu=1.2
new pvsystem.Load.80_26696225_13_083188999999999_load_pv phases=1 bus1=80_2668508_13_0832622_node_secondary_6.1.0 kv=0.24 irradiance=1 pmpp=1.185 kva=1.185 conn=wye %cutin=0.1 %cutout=0.1 vmaxpu=1.2
new pvsystem.Load.80_26958160000001_13_089638650000003_load_pv phases=1 bus1=80_26959889250891_13_089582890231116_node_secondary_14.1.0 kv=0.24 irradiance=1 pmpp=2.58 kva=2.58 conn=wye %cutin=0.1 %cutout=0.1 vmaxpu=1.2
new pvsystem.Load.80_27283504999998_13_077349899999998_load_pv phases=1 bus1=80_27274951333332_13_077297897838816__secondary_11_node.1.0 kv=0.24 irradiance=1 pmpp=0.48 kva=0.48 conn=wye %cutin=0.1 %cutout=0.1 vmaxpu=1.2
new pvsystem.Load.80_2664235_13_092375550000002_load_pv phases=1 bus1=80_26635304470676_13_092428615000001__secondary_5_node.2.0 kv=0.24 irradiance=1 pmpp=1.74 kva=1.74 conn=wye %cutin=0.1 %cutout=0.1 vmaxpu=1.2
new pvsystem.Load.80_26374080000001_13_08922815_load_pv phases=1 bus1=80_2636396715059_13_08932532__secondary_12_node.1.0 kv=0.24 irradiance=1 pmpp=0.9 kva=0.9 conn=wye %cutin=0.1 %cutout=0.1 vmaxpu=1.2
new pvsystem.Load.80_2793822637146_13_089591672274485_load_pv phases=1 bus1=80_2792462029949_13_089591672274485__secondary_17_node.1.0 kv=0.24 irradiance=1 pmpp=0.81 kva=0.81 conn=wye %cutin=0.1 %cutout=0.1 vmaxpu=1.2
new pvsystem.Load.80_27877347724522_13_081108443021938_load_pv phases=1 bus1=80_27871334145682_13_081086713487561__secondary_3_node.1.0 kv=0.24 irradiance=1 pmpp=5.16 kva=5.16 conn=wye %cutin=0.1 %cutout=0.1 vmaxpu=1.2
new pvsystem.Load.80_26164785216768_13_091741421925954_load_pv phases=1 bus1=80_26179885682397_13_091840439047358__secondary_8_node.3.0 kv=0.24 irradiance=1 pmpp=2.085 kva=2.085 conn=wye %cutin=0.1 %cutout=0.1 vmaxpu=1.2
new pvsystem.Load.80_26909529999999_13_081373000000003_load_pv phases=1 bus1=80_26925_13_0814348_node_secondary_1.1.0 kv=0.24 irradiance=1 pmpp=0.42 kva=0.42 conn=wye %cutin=0.1 %cutout=0.1 vmaxpu=1.2
new pvsystem.Load.80_2755878_13_0824491_load_pv phases=1 bus1=80_27565003879936_13_082280592796335_node_secondary_3.3.0 kv=0.24 irradiance=1 pmpp=0.0 kva=0.0 conn=wye %cutin=0.1 %cutout=0.1 vmaxpu=1.2
new pvsystem.Load.80_2687693_13_084621349999999_load_pv phases=1 bus1=80_26888633987669_13_084401280598376__secondary_0_node.3.0 kv=0.24 irradiance=1 pmpp=1.125 kva=1.125 conn=wye %cutin=0.1 %cutout=0.1 vmaxpu=1.2
new pvsystem.Load.80_26334745_13_085926899999995_load_pv phases=1 bus1=80_26327263523805_13_085881053128048__secondary_19_node.1.0 kv=0.24 irradiance=1 pmpp=2.97 kva=2.97 conn=wye %cutin=0.1 %cutout=0.1 vmaxpu=1.2
new pvsystem.Load.80_27154169999999_13_077755649999999_load_pv phases=1 bus1=80_2714247_13_0775466_node_secondary_16.1.0 kv=0.24 irradiance=1 pmpp=0.27 kva=0.27 conn=wye %cutin=0.1 %cutout=0.1 vmaxpu=1.2
new pvsystem.Load.80_2634904056238_13_091459931692262_load_pv phases=1 bus1=80_2633593161187_13_091564357586565_node_secondary_8.2.0 kv=0.24 irradiance=1 pmpp=1.08 kva=1.08 conn=wye %cutin=0.1 %cutout=0.1 vmaxpu=1.2
new pvsystem.Load.80_2623457291605_13_082326591455892_load_pv phases=1 bus1=80_26225068420187_13_082383237758682_node_secondary_10.1.0 kv=0.24 irradiance=1 pmpp=0.72 kva=0.72 conn=wye %cutin=0.1 %cutout=0.1 vmaxpu=1.2
new pvsystem.Load.80_26578144433259_13_089572377944727_load_pv phases=1 bus1=80_26590504138132_13_089591419369764_node_secondary_4.1.0 kv=0.24 irradiance=1 pmpp=0.93 kva=0.93 conn=wye %cutin=0.1 %cutout=0.1 vmaxpu=1.2
new pvsystem.Load.80_2665475_13_091273650000003_load_pv phases=1 bus1=80_26665085049554_13_091244275000001__secondary_5_node.2.0 kv=0.24 irradiance=1 pmpp=0.78 kva=0.78 conn=wye %cutin=0.1 %cutout=0.1 vmaxpu=1.2
new pvsystem.Load.80_26893665_13_085036649999997_load_pv phases=1 bus1=80_26905094692297_13_085002406373752_node_secondary_0.1.0 kv=0.24 irradiance=1 pmpp=1.365 kva=1.365 conn=wye %cutin=0.1 %cutout=0.1 vmaxpu=1.2
new pvsystem.Load.80_2690281_13_090462499999997_load_pv phases=1 bus1=80_26896987898208_13_090383733908267_node_secondary_14.3.0 kv=0.24 irradiance=1 pmpp=0.75 kva=0.75 conn=wye %cutin=0.1 %cutout=0.1 vmaxpu=1.2
new pvsystem.Load.80_27542270000002_13_090168799999997_load_pv phases=1 bus1=80_27548009198517_13_090314349289262_node_secondary_15.1.0 kv=0.24 irradiance=1 pmpp=0.285 kva=0.285 conn=wye %cutin=0.1 %cutout=0.1 vmaxpu=1.2
new pvsystem.Load.80_27641277730345_13_087677096992245_load_pv phases=1 bus1=80_27658248905605_13_08779470893183__secondary_2_node.2.0 kv=0.24 irradiance=1 pmpp=0.405 kva=0.405 conn=wye %cutin=0.1 %cutout=0.1 vmaxpu=1.2
new pvsystem.Load.80_26476904646785_13_076239898901678_load_pv phases=1 bus1=80_26486002363055_13_076007374492201_node_secondary_7.2.0 kv=0.24 irradiance=1 pmpp=0.36 kva=0.36 conn=wye %cutin=0.1 %cutout=0.1 vmaxpu=1.2
new pvsystem.Load.80_27906936476894_13_08840125832105_load_pv phases=1 bus1=80_27913151959193_13_088287717296998_node_secondary_9.2.0 kv=0.24 irradiance=1 pmpp=0.6 kva=0.6 conn=wye %cutin=0.1 %cutout=0.1 vmaxpu=1.2
new pvsystem.Load.80_27253693985242_13_08091410345631_load_pv phases=1 bus1=80_27267988235701_13_080856890233047__secondary_1_node.2.0 kv=0.24 irradiance=1 pmpp=1.875 kva=1.875 conn=wye %cutin=0.1 %cutout=0.1 vmaxpu=1.2
new pvsystem.Load.80_26807982733503_13_075948450083496_load_pv phases=1 bus1=80_26807465693126_13_07580503125037_node_secondary_13.3.0 kv=0.24 irradiance=1 pmpp=0.96 kva=0.96 conn=wye %cutin=0.1 %cutout=0.1 vmaxpu=1.2
new pvsystem.Load.80_27154145_13_077682600000001_load_pv phases=1 bus1=80_27155086152538_13_077514745669724_node_secondary_16.3.0 kv=0.24 irradiance=1 pmpp=0.795 kva=0.795 conn=wye %cutin=0.1 %cutout=0.1 vmaxpu=1.2
new pvsystem.Load.80_27022070000001_13_0766765_load_pv phases=1 bus1=80_2700896_13_0767454_node_secondary_16.3.0 kv=0.24 irradiance=1 pmpp=1.425 kva=1.425 conn=wye %cutin=0.1 %cutout=0.1 vmaxpu=1.2
new pvsystem.Load.80_26869320000002_13_0811301_load_pv phases=1 bus1=80_26863924167748_13_08124875546904_node_secondary_6.2.0 kv=0.24 irradiance=1 pmpp=0.45 kva=0.45 conn=wye %cutin=0.1 %cutout=0.1 vmaxpu=1.2
new pvsystem.Load.80_27817930091952_13_088986040406466_load_pv phases=1 bus1=80_27824555412838_13_089080254400494_node_secondary_9.3.0 kv=0.24 irradiance=1 pmpp=1.515 kva=1.515 conn=wye %cutin=0.1 %cutout=0.1 vmaxpu=1.2
new pvsystem.Load.80_26722774999998_13_088798699999998_load_pv phases=1 bus1=80_2670525_13_088897_node_secondary_4.1.0 kv=0.24 irradiance=1 pmpp=1.08 kva=1.08 conn=wye %cutin=0.1 %cutout=0.1 vmaxpu=1.2
new pvsystem.Load.80_2754185_13_090264799999998_load_pv phases=1 bus1=80_27548009198517_13_090314349289262_node_secondary_15.1.0 kv=0.24 irradiance=1 pmpp=0.405 kva=0.405 conn=wye %cutin=0.1 %cutout=0.1 vmaxpu=1.2
new pvsystem.Load.80_27672769376868_13_084566925449927_load_pv phases=1 bus1=80_27681546929047_13_084564067483305_node_secondary_18.3.0 kv=0.24 irradiance=1 pmpp=1.83 kva=1.83 conn=wye %cutin=0.1 %cutout=0.1 vmaxpu=1.2
new pvsystem.Load.80_27859347304044_13_081621204934223_load_pv phases=1 bus1=80_27871334145682_13_081673582402155__secondary_3_node.3.0 kv=0.24 irradiance=1 pmpp=18.44 kva=18.44 conn=wye %cutin=0.1 %cutout=0.1 vmaxpu=1.2
new pvsystem.Load.80_27049415709153_13_076775175028049_load_pv phases=1 bus1=80_27068475867307_13_076813117900747_node_secondary_16.2.0 kv=0.24 irradiance=1 pmpp=1.35 kva=1.35 conn=wye %cutin=0.1 %cutout=0.1 vmaxpu=1.2
new pvsystem.Load.80_27598117607046_13_089987708504717_load_pv phases=1 bus1=80_27598680535084_13_090170647994043_node_secondary_15.2.0 kv=0.24 irradiance=1 pmpp=1.32 kva=1.32 conn=wye %cutin=0.1 %cutout=0.1 vmaxpu=1.2
new pvsystem.Load.80_27603295_13_088730350000004_load_pv phases=1 bus1=80_27616113534293_13_088646516977681_node_secondary_2.1.0 kv=0.24 irradiance=1 pmpp=0.87 kva=0.87 conn=wye %cutin=0.1 %cutout=0.1 vmaxpu=1.2
new pvsystem.Load.80_27853830000001_13_0915873_load_pv phases=1 bus1=80_2783851379038_13_091514088159265_node_secondary_17.3.0 kv=0.24 irradiance=1 pmpp=0.525 kva=0.525 conn=wye %cutin=0.1 %cutout=0.1 vmaxpu=1.2
new pvsystem.Load.80_2613283_13_090840749999998_load_pv phases=1 bus1=80_2612916660236_13_091146407627221_node_secondary_8.1.0 kv=0.24 irradiance=1 pmpp=2.25 kva=2.25 conn=wye %cutin=0.1 %cutout=0.1 vmaxpu=1.2
new pvsystem.Load.80_26786734999999_13_075148299999999_load_pv phases=1 bus1=80_2679937_13_0752581_node_secondary_13.3.0 kv=0.24 irradiance=1 pmpp=0.63 kva=0.63 conn=wye %cutin=0.1 %cutout=0.1 vmaxpu=1.2
new pvsystem.Load.80_26284705_13_092459300000002_load_pv phases=1 bus1=80_26282478662104_13_092239903671695_node_secondary_8.1.0 kv=0.24 irradiance=1 pmpp=1.065 kva=1.065 conn=wye %cutin=0.1 %cutout=0.1 vmaxpu=1.2
new pvsystem.Load.80_27833251899781_13_083593417235782_load_pv phases=1 bus1=80_27840042865077_13_083474862647078_node_secondary_18.1.0 kv=0.24 irradiance=1 pmpp=1.035 kva=1.035 conn=wye %cutin=0.1 %cutout=0.1 vmaxpu=1.2
new pvsystem.Load.80_27604775_13_0921287_load_pv phases=1 bus1=80_27604749013032_13_092217051318414_node_secondary_15.3.0 kv=0.24 irradiance=1 pmpp=0.93 kva=0.93 conn=wye %cutin=0.1 %cutout=0.1 vmaxpu=1.2
new pvsystem.Load.80_26547794869144_13_079619669648638_load_pv phases=1 bus1=80_26556877299639_13_0795632__secondary_6_node.1.0 kv=0.24 irradiance=1 pmpp=2.505 kva=2.505 conn=wye %cutin=0.1 %cutout=0.1 vmaxpu=1.2
new pvsystem.Load.80_26691492548436_13_089209897765397_load_pv phases=1 bus1=80_26706028605123_13_08914417718021_node_secondary_4.1.0 kv=0.24 irradiance=1 pmpp=1.065 kva=1.065 conn=wye %cutin=0.1 %cutout=0.1 vmaxpu=1.2
new pvsystem.Load.80_26227055_13_09262045_load_pv phases=1 bus1=80_26241296137329_13_092760120413827__secondary_8_node.3.0 kv=0.24 irradiance=1 pmpp=0.27 kva=0.27 conn=wye %cutin=0.1 %cutout=0.1 vmaxpu=1.2
new pvsystem.Load.80_27600766955872_13_091432690936113_load_pv phases=1 bus1=80_2760009057824_13_091520681032982__secondary_15_node.2.0 kv=0.24 irradiance=1 pmpp=0.975 kva=0.975 conn=wye %cutin=0.1 %cutout=0.1 vmaxpu=1.2
new pvsystem.Load.80_26648577493128_13_082408436134997_load_pv phases=1 bus1=80_26663187805457_13_082460718773222_node_secondary_6.3.0 kv=0.24 irradiance=1 pmpp=0.585 kva=0.585 conn=wye %cutin=0.1 %cutout=0.1 vmaxpu=1.2
new pvsystem.Load.80_26930877658904_13_08860395728302_load_pv phases=1 bus1=80_2691979_13_088458_node_secondary_4.3.0 kv=0.24 irradiance=1 pmpp=3.0 kva=3.0 conn=wye %cutin=0.1 %cutout=0.1 vmaxpu=1.2
new pvsystem.Load.80_27322307567523_13_08044070851701_load_pv phases=1 bus1=80_27320491552788_13_080499844572968__secondary_3_node.3.0 kv=0.24 irradiance=1 pmpp=2.085 kva=2.085 conn=wye %cutin=0.1 %cutout=0.1 vmaxpu=1.2
new pvsystem.Load.80_26396140000001_13_075184700000001_load_pv phases=1 bus1=80_26404335429201_13_075134473997423_node_secondary_7.3.0 kv=0.24 irradiance=1 pmpp=0.495 kva=0.495 conn=wye %cutin=0.1 %cutout=0.1 vmaxpu=1.2
new pvsystem.Load.80_26606830000001_13_091972050000003_load_pv phases=1 bus1=80_26605523891799_13_09213253__secondary_5_node.1.0 kv=0.24 irradiance=1 pmpp=0.555 kva=0.555 conn=wye %cutin=0.1 %cutout=0.1 vmaxpu=1.2
new pvsystem.Load.80_26423313036128_13_074791422231781_load_pv phases=1 bus1=80_26423910858404_13_074918047994846_node_secondary_7.1.0 kv=0.24 irradiance=1 pmpp=0.945 kva=0.945 conn=wye %cutin=0.1 %cutout=0.1 vmaxpu=1.2
new pvsystem.Load.80_26721408663188_13_077235076629265_load_pv phases=1 bus1=80_2671289_13_0773492_node_secondary_13.1.0 kv=0.24 irradiance=1 pmpp=1.365 kva=1.365 conn=wye %cutin=0.1 %cutout=0.1 vmaxpu=1.2
new pvsystem.Load.80_2682852_13_080888450000002_load_pv phases=1 bus1=80_26830396278802_13_080778025091599_node_secondary_6.3.0 kv=0.24 irradiance=1 pmpp=0.45 kva=0.45 conn=wye %cutin=0.1 %cutout=0.1 vmaxpu=1.2
new pvsystem.Load.80_26238134999998_13_082417699999997_load_pv phases=1 bus1=80_26225068420187_13_082383237758682_node_secondary_10.2.0 kv=0.24 irradiance=1 pmpp=0.945 kva=0.945 conn=wye %cutin=0.1 %cutout=0.1 vmaxpu=1.2
new pvsystem.Load.80_26176258571833_13_085380495630666_load_pv phases=1 bus1=80_2616321031815_13_085380495630666__secondary_10_node.3.0 kv=0.24 irradiance=1 pmpp=3.105 kva=3.105 conn=wye %cutin=0.1 %cutout=0.1 vmaxpu=1.2
new pvsystem.Load.80_2614636529488_13_091011871778973_load_pv phases=1 bus1=80_2615857830118_13_091123053813611_node_secondary_8.1.0 kv=0.24 irradiance=1 pmpp=1.065 kva=1.065 conn=wye %cutin=0.1 %cutout=0.1 vmaxpu=1.2
new pvsystem.Load.80_2711776_13_077032900000003_load_pv phases=1 bus1=80_27117162983168_13_07704087290874__secondary_16_node.1.0 kv=0.24 irradiance=1 pmpp=0.33 kva=0.33 conn=wye %cutin=0.1 %cutout=0.1 vmaxpu=1.2
new pvsystem.Load.80_27564565_13_085671549999999_load_pv phases=1 bus1=80_27559169014765_13_085561376724232__secondary_18_node.2.0 kv=0.24 irradiance=1 pmpp=0.555 kva=0.555 conn=wye %cutin=0.1 %cutout=0.1 vmaxpu=1.2
new pvsystem.Load.80_2761925226584_13_086641437889593_load_pv phases=1 bus1=80_27628538458073_13_086580913080844__secondary_2_node.3.0 kv=0.24 irradiance=1 pmpp=1.155 kva=1.155 conn=wye %cutin=0.1 %cutout=0.1 vmaxpu=1.2
new pvsystem.Load.80_26288938015412_13_083861817840436_load_pv phases=1 bus1=80_2628580563346_13_084081442664333_node_secondary_10.2.0 kv=0.24 irradiance=1 pmpp=0.87 kva=0.87 conn=wye %cutin=0.1 %cutout=0.1 vmaxpu=1.2
new pvsystem.Load.80_27509624999999_13_091040900000001_load_pv phases=1 bus1=80_2753416278912_13_090927846549473__secondary_15_node.1.0 kv=0.24 irradiance=1 pmpp=0.945 kva=0.945 conn=wye %cutin=0.1 %cutout=0.1 vmaxpu=1.2
new pvsystem.Load.80_27459015_13_07653905_load_pv phases=1 bus1=80_27460773333333_13_076406141355273__secondary_11_node.2.0 kv=0.24 irradiance=1 pmpp=1.53 kva=1.53 conn=wye %cutin=0.1 %cutout=0.1 vmaxpu=1.2
new pvsystem.Load.80_27797999128471_13_085165777145_load_pv phases=1 bus1=80_27799206784356_13_08525352905181__secondary_18_node.3.0 kv=0.24 irradiance=1 pmpp=1.455 kva=1.455 conn=wye %cutin=0.1 %cutout=0.1 vmaxpu=1.2
new pvsystem.Load.80_27902049670037_13_08012947155824_load_pv phases=1 bus1=80_27901936511954_13_08020641011567__secondary_3_node.3.0 kv=0.24 irradiance=1 pmpp=1.38 kva=1.38 conn=wye %cutin=0.1 %cutout=0.1 vmaxpu=1.2
new pvsystem.Load.80_26131881412853_13_089911314617039_load_pv phases=1 bus1=80_26138737799853_13_089695645685405_node_secondary_12.1.0 kv=0.24 irradiance=1 pmpp=1.47 kva=1.47 conn=wye %cutin=0.1 %cutout=0.1 vmaxpu=1.2
new pvsystem.Load.80_27291029999999_13_07518435_load_pv phases=1 bus1=80_27274951333332_13_075217132710547__secondary_11_node.2.0 kv=0.24 irradiance=1 pmpp=0.54 kva=0.54 conn=wye %cutin=0.1 %cutout=0.1 vmaxpu=1.2
new pvsystem.Load.80_27815954999998_13_0851725_load_pv phases=1 bus1=80_2782762800699_13_085043136872207_node_secondary_18.3.0 kv=0.24 irradiance=1 pmpp=1.065 kva=1.065 conn=wye %cutin=0.1 %cutout=0.1 vmaxpu=1.2
new pvsystem.Load.80_2617473974881_13_089782826475854_load_pv phases=1 bus1=80_2618445_13_0896724_node_secondary_12.3.0 kv=0.24 irradiance=1 pmpp=0.525 kva=0.525 conn=wye %cutin=0.1 %cutout=0.1 vmaxpu=1.2
new pvsystem.Load.80_2774609_13_085818599999998_load_pv phases=1 bus1=80_27739197341958_13_085869224396657__secondary_18_node.2.0 kv=0.24 irradiance=1 pmpp=1.02 kva=1.02 conn=wye %cutin=0.1 %cutout=0.1 vmaxpu=1.2
new pvsystem.Load.80_27018322041822_13_084701581995573_load_pv phases=1 bus1=80_27038802285455_13_084753358445786_node_secondary_0.1.0 kv=0.24 irradiance=1 pmpp=8.205 kva=8.205 conn=wye %cutin=0.1 %cutout=0.1 vmaxpu=1.2
new pvsystem.Load.80_26714087850404_13_074999305080983_load_pv phases=1 bus1=80_2670150493205_13_075145872136435_node_secondary_13.2.0 kv=0.24 irradiance=1 pmpp=3.06 kva=3.06 conn=wye %cutin=0.1 %cutout=0.1 vmaxpu=1.2
new pvsystem.Load.80_26893773010192_13_075299802446214_load_pv phases=1 bus1=80_2691024950462_13_075256141101962_node_secondary_13.2.0 kv=0.24 irradiance=1 pmpp=1.05 kva=1.05 conn=wye %cutin=0.1 %cutout=0.1 vmaxpu=1.2
new pvsystem.Load.80_27611313531547_13_09175063087065_load_pv phases=1 bus1=80_2760009057824_13_091817098274737__secondary_15_node.2.0 kv=0.24 irradiance=1 pmpp=0.525 kva=0.525 conn=wye %cutin=0.1 %cutout=0.1 vmaxpu=1.2
new pvsystem.Load.80_26575426320474_13_088959824241545_load_pv phases=1 bus1=80_26591056092087_13_089012946246509_node_secondary_4.1.0 kv=0.24 irradiance=1 pmpp=0.945 kva=0.945 conn=wye %cutin=0.1 %cutout=0.1 vmaxpu=1.2
new pvsystem.Load.80_2614513_13_083430749999998_load_pv phases=1 bus1=80_2615995727664_13_083671237571593_node_secondary_10.3.0 kv=0.24 irradiance=1 pmpp=3.48 kva=3.48 conn=wye %cutin=0.1 %cutout=0.1 vmaxpu=1.2
new pvsystem.Load.80_26767112541775_13_086270911099636_load_pv phases=1 bus1=80_26779348547299_13_086087117034493_node_secondary_0.2.0 kv=0.24 irradiance=1 pmpp=14.625 kva=14.625 conn=wye %cutin=0.1 %cutout=0.1 vmaxpu=1.2
new pvsystem.Load.80_26110705949513_13_080691956938532_load_pv phases=1 bus1=80_26103103439384_13_08058125162748__secondary_10_node.3.0 kv=0.24 irradiance=1 pmpp=3.87 kva=3.87 conn=wye %cutin=0.1 %cutout=0.1 vmaxpu=1.2
new pvsystem.Load.80_2704388_13_075554599999997_load_pv phases=1 bus1=80_27028264343247_13_075517608808488_node_secondary_16.3.0 kv=0.24 irradiance=1 pmpp=1.365 kva=1.365 conn=wye %cutin=0.1 %cutout=0.1 vmaxpu=1.2
new pvsystem.Load.80_26611683686754_13_08280931892794_load_pv phases=1 bus1=80_2661466341637_13_082789956319663_node_secondary_6.1.0 kv=0.24 irradiance=1 pmpp=0.51 kva=0.51 conn=wye %cutin=0.1 %cutout=0.1 vmaxpu=1.2
new pvsystem.Load.80_27704765000001_13_087577_load_pv phases=1 bus1=80_2769357_13_0876153_node_secondary_2.1.0 kv=0.24 irradiance=1 pmpp=0.495 kva=0.495 conn=wye %cutin=0.1 %cutout=0.1 vmaxpu=1.2
new pvsystem.Load.80_2642698018371_13_089589672349653_load_pv phases=1 bus1=80_26424068739611_13_089617846666666__secondary_12_node.3.0 kv=0.24 irradiance=1 pmpp=0.93 kva=0.93 conn=wye %cutin=0.1 %cutout=0.1 vmaxpu=1.2
new pvsystem.Load.80_27631019999998_13_086154099999998_load_pv phases=1 bus1=80_27627536187643_13_08603389347493_node_secondary_2.3.0 kv=0.24 irradiance=1 pmpp=1.725 kva=1.725 conn=wye %cutin=0.1 %cutout=0.1 vmaxpu=1.2
new pvsystem.Load.80_27583434790945_13_0843171707032_load_pv phases=1 bus1=80_27589173735964_13_08432998603454__secondary_18_node.3.0 kv=0.24 irradiance=1 pmpp=1.155 kva=1.155 conn=wye %cutin=0.1 %cutout=0.1 vmaxpu=1.2
new pvsystem.Load.80_2636975735046_13_074893513088695_load_pv phases=1 bus1=80_26359868_13_074972295857883__secondary_7_node.2.0 kv=0.24 irradiance=1 pmpp=6.03 kva=6.03 conn=wye %cutin=0.1 %cutout=0.1 vmaxpu=1.2
new pvsystem.Load.80_26599284999999_13_086138850000001_load_pv phases=1 bus1=80_26580199127721_13_086197545193498_node_secondary_19.3.0 kv=0.24 irradiance=1 pmpp=1.47 kva=1.47 conn=wye %cutin=0.1 %cutout=0.1 vmaxpu=1.2
new pvsystem.Load.80_26655199999999_13_090742_load_pv phases=1 bus1=80_26665085049554_13_09094819__secondary_5_node.2.0 kv=0.24 irradiance=1 pmpp=0.615 kva=0.615 conn=wye %cutin=0.1 %cutout=0.1 vmaxpu=1.2
new pvsystem.Load.80_27721113988652_13_084976625543163_load_pv phases=1 bus1=80_2772479_13_0850934_node_secondary_18.2.0 kv=0.24 irradiance=1 pmpp=2.97 kva=2.97 conn=wye %cutin=0.1 %cutout=0.1 vmaxpu=1.2
new pvsystem.Load.80_27697222570592_13_08535300184546_load_pv phases=1 bus1=80_27709192620759_13_085561376724232__secondary_18_node.1.0 kv=0.24 irradiance=1 pmpp=0.57 kva=0.57 conn=wye %cutin=0.1 %cutout=0.1 vmaxpu=1.2
new pvsystem.Load.80_26113411994321_13_088752663364847_load_pv phases=1 bus1=80_2612356079451_13_088740266666667__secondary_12_node.1.0 kv=0.24 irradiance=1 pmpp=0.81 kva=0.81 conn=wye %cutin=0.1 %cutout=0.1 vmaxpu=1.2
new pvsystem.Load.80_2677281_13_082329899999994_load_pv phases=1 bus1=80_26772229895728_13_08255195866087_node_secondary_6.3.0 kv=0.24 irradiance=1 pmpp=1.05 kva=1.05 conn=wye %cutin=0.1 %cutout=0.1 vmaxpu=1.2
new pvsystem.Load.80_2758957_13_092329549999999_load_pv phases=1 bus1=80_2757544_13_0922506_node_secondary_15.1.0 kv=0.24 irradiance=1 pmpp=1.575 kva=1.575 conn=wye %cutin=0.1 %cutout=0.1 vmaxpu=1.2
new pvsystem.Load.80_2697209_13_07694435_load_pv phases=1 bus1=80_26960433539533_13_077018479290707_node_secondary_16.1.0 kv=0.24 irradiance=1 pmpp=0.945 kva=0.945 conn=wye %cutin=0.1 %cutout=0.1 vmaxpu=1.2
new pvsystem.Load.80_27798453938831_13_090174317353279_load_pv phases=1 bus1=80_27786749115083_13_090126969690253_node_secondary_17.1.0 kv=0.24 irradiance=1 pmpp=0.735 kva=0.735 conn=wye %cutin=0.1 %cutout=0.1 vmaxpu=1.2
new pvsystem.Load.80_26437809999999_13_080107199999999_load_pv phases=1 bus1=80_264336912726_13_080281298877281__secondary_10_node.2.0 kv=0.24 irradiance=1 pmpp=2.835 kva=2.835 conn=wye %cutin=0.1 %cutout=0.1 vmaxpu=1.2
new pvsystem.Load.80_26770685_13_075471050000003_load_pv phases=1 bus1=80_26770380470985_13_075311990383504_node_secondary_13.3.0 kv=0.24 irradiance=1 pmpp=0.93 kva=0.93 conn=wye %cutin=0.1 %cutout=0.1 vmaxpu=1.2
new pvsystem.Load.80_26203711597333_13_083414917636249_load_pv phases=1 bus1=80_2621110575888_13_083382679190532_node_secondary_10.2.0 kv=0.24 irradiance=1 pmpp=2.475 kva=2.475 conn=wye %cutin=0.1 %cutout=0.1 vmaxpu=1.2
new pvsystem.Load.80_26503720456442_13_092465373680634_load_pv phases=1 bus1=80_2651812_13_0924835_node_secondary_5.2.0 kv=0.24 irradiance=1 pmpp=1.425 kva=1.425 conn=wye %cutin=0.1 %cutout=0.1 vmaxpu=1.2
new pvsystem.Load.80_27878839291563_13_09267327737341_load_pv phases=1 bus1=80_27892657749574_13_092717__secondary_17_node.2.0 kv=0.24 irradiance=1 pmpp=2.25 kva=2.25 conn=wye %cutin=0.1 %cutout=0.1 vmaxpu=1.2
new pvsystem.Load.80_26904149229745_13_092384508564933_load_pv phases=1 bus1=80_26888100333333_13_092499901570347__secondary_14_node.3.0 kv=0.24 irradiance=1 pmpp=1.305 kva=1.305 conn=wye %cutin=0.1 %cutout=0.1 vmaxpu=1.2
new pvsystem.Load.80_262153_13_0902219_load_pv phases=1 bus1=80_26203102639221_13_090355291272658_node_secondary_8.1.0 kv=0.24 irradiance=1 pmpp=0.54 kva=0.54 conn=wye %cutin=0.1 %cutout=0.1 vmaxpu=1.2
new pvsystem.Load.80_2766308_13_088606950000003_load_pv phases=1 bus1=80_2767362_13_0887765_node_secondary_2.2.0 kv=0.24 irradiance=1 pmpp=0.33 kva=0.33 conn=wye %cutin=0.1 %cutout=0.1 vmaxpu=1.2
new pvsystem.Load.80_26788407385472_13_08569424667518_load_pv phases=1 bus1=80_26792960767138_13_085560466681384_node_secondary_0.2.0 kv=0.24 irradiance=1 pmpp=1.095 kva=1.095 conn=wye %cutin=0.1 %cutout=0.1 vmaxpu=1.2
new pvsystem.Load.80_26811797521843_13_075363293121441_load_pv phases=1 bus1=80_26816414206202_13_07521166274124_node_secondary_13.3.0 kv=0.24 irradiance=1 pmpp=1.815 kva=1.815 conn=wye %cutin=0.1 %cutout=0.1 vmaxpu=1.2
new pvsystem.Load.80_2630675942024_13_092751828830117_load_pv phases=1 bus1=80_2630270659226_13_092760120413827__secondary_8_node.2.0 kv=0.24 irradiance=1 pmpp=1.05 kva=1.05 conn=wye %cutin=0.1 %cutout=0.1 vmaxpu=1.2
new pvsystem.Load.80_2683899_13_076080300000001_load_pv phases=1 bus1=80_26855779422446_13_076124574751736__secondary_13_node.2.0 kv=0.24 irradiance=1 pmpp=0.81 kva=0.81 conn=wye %cutin=0.1 %cutout=0.1 vmaxpu=1.2
new pvsystem.Load.80_27690637650868_13_084228559213084_load_pv phases=1 bus1=80_2767896_13_0842312_node_secondary_18.2.0 kv=0.24 irradiance=1 pmpp=2.37 kva=2.37 conn=wye %cutin=0.1 %cutout=0.1 vmaxpu=1.2
new pvsystem.Load.80_2751349537632_13_090300677064954_load_pv phases=1 bus1=80_2750119889456_13_090335012065962__secondary_15_node.2.0 kv=0.24 irradiance=1 pmpp=0.345 kva=0.345 conn=wye %cutin=0.1 %cutout=0.1 vmaxpu=1.2
new pvsystem.Load.80_26967533443934_13_08312669142756_load_pv phases=1 bus1=80_26968622592561_13_083133692203903_node_secondary_1.2.0 kv=0.24 irradiance=1 pmpp=0.405 kva=0.405 conn=wye %cutin=0.1 %cutout=0.1 vmaxpu=1.2
new pvsystem.Load.80_273589718945_13_08067583854104_load_pv phases=1 bus1=80_27373984287935_13_080664320100837_node_secondary_3.1.0 kv=0.24 irradiance=1 pmpp=0.27 kva=0.27 conn=wye %cutin=0.1 %cutout=0.1 vmaxpu=1.2
new pvsystem.Load.80_26647477687227_13_087094964436917_load_pv phases=1 bus1=80_2663066498287_13_087081599963582__secondary_4_node.2.0 kv=0.24 irradiance=1 pmpp=0.615 kva=0.615 conn=wye %cutin=0.1 %cutout=0.1 vmaxpu=1.2
new pvsystem.Load.80_26807685409862_13_077113323213805_load_pv phases=1 bus1=80_26823929352429_13_077201821723609_node_secondary_13.2.0 kv=0.24 irradiance=1 pmpp=0.63 kva=0.63 conn=wye %cutin=0.1 %cutout=0.1 vmaxpu=1.2
new pvsystem.Load.80_2756478121119_13_082477185465835_load_pv phases=1 bus1=80_27565003879936_13_082280592796335_node_secondary_3.1.0 kv=0.24 irradiance=1 pmpp=9.33 kva=9.33 conn=wye %cutin=0.1 %cutout=0.1 vmaxpu=1.2
new pvsystem.Load.80_2715107_13_0747857_load_pv phases=1 bus1=80_2715107_13_074622628388184__secondary_11_node.3.0 kv=0.24 irradiance=1 pmpp=0.555 kva=0.555 conn=wye %cutin=0.1 %cutout=0.1 vmaxpu=1.2
new pvsystem.Load.80_2727224_13_088356449999997_load_pv phases=1 bus1=80_27272013087692_13_088401606857321__secondary_2_node.1.0 kv=0.24 irradiance=1 pmpp=0.99 kva=0.99 conn=wye %cutin=0.1 %cutout=0.1 vmaxpu=1.2
new pvsystem.Load.80_27513608780143_13_090189123977504_load_pv phases=1 bus1=80_2750119889456_13_090335012065962__secondary_15_node.3.0 kv=0.24 irradiance=1 pmpp=0.825 kva=0.825 conn=wye %cutin=0.1 %cutout=0.1 vmaxpu=1.2
new pvsystem.Load.80_2687442_13_0809624_load_pv phases=1 bus1=80_26859898335493_13_08096221093808_node_secondary_6.3.0 kv=0.24 irradiance=1 pmpp=2.655 kva=2.655 conn=wye %cutin=0.1 %cutout=0.1 vmaxpu=1.2
new pvsystem.Load.80_2631838_13_0778598_load_pv phases=1 bus1=80_26306486922908_13_077987880656865_node_secondary_7.2.0 kv=0.24 irradiance=1 pmpp=0.945 kva=0.945 conn=wye %cutin=0.1 %cutout=0.1 vmaxpu=1.2
new pvsystem.Load.80_26636975000001_13_086732900000001_load_pv phases=1 bus1=80_2663066498287_13_08679007498179__secondary_4_node.1.0 kv=0.24 irradiance=1 pmpp=1.05 kva=1.05 conn=wye %cutin=0.1 %cutout=0.1 vmaxpu=1.2
new pvsystem.Load.80_26799885288607_13_075638769990352_load_pv phases=1 bus1=80_26807465693126_13_07580503125037_node_secondary_13.3.0 kv=0.24 irradiance=1 pmpp=1.365 kva=1.365 conn=wye %cutin=0.1 %cutout=0.1 vmaxpu=1.2
new pvsystem.Load.80_26521974488259_13_08397067763967_load_pv phases=1 bus1=80_26520554837927_13_08390280583256_node_secondary_19.3.0 kv=0.24 irradiance=1 pmpp=0.42 kva=0.42 conn=wye %cutin=0.1 %cutout=0.1 vmaxpu=1.2
new pvsystem.Load.80_26993959999999_13_084821849999999_load_pv phases=1 bus1=80_2698485_13_0845423_node_secondary_0.2.0 kv=0.24 irradiance=1 pmpp=1.08 kva=1.08 conn=wye %cutin=0.1 %cutout=0.1 vmaxpu=1.2
new pvsystem.Load.80_26646534999999_13_08494525_load_pv phases=1 bus1=80_26678117820174_13_084927161738591_node_secondary_19.1.0 kv=0.24 irradiance=1 pmpp=2.43 kva=2.43 conn=wye %cutin=0.1 %cutout=0.1 vmaxpu=1.2
new pvsystem.Load.80_26856328714095_13_087625679908907_load_pv phases=1 bus1=80_2684636428911_13_087513573701623_node_secondary_4.3.0 kv=0.24 irradiance=1 pmpp=0.645 kva=0.645 conn=wye %cutin=0.1 %cutout=0.1 vmaxpu=1.2
new pvsystem.Load.80_26702815000002_13_081799449999998_load_pv phases=1 bus1=80_26689884690096_13_081718093793897_node_secondary_6.2.0 kv=0.24 irradiance=1 pmpp=0.9 kva=0.9 conn=wye %cutin=0.1 %cutout=0.1 vmaxpu=1.2
new pvsystem.Load.80_26255345_13_091366449999999_load_pv phases=1 bus1=80_26241296137329_13_09122731813638__secondary_8_node.3.0 kv=0.24 irradiance=1 pmpp=0.285 kva=0.285 conn=wye %cutin=0.1 %cutout=0.1 vmaxpu=1.2
new pvsystem.Load.80_27749084999999_13_09262565_load_pv phases=1 bus1=80_27764807549914_13_092717__secondary_17_node.1.0 kv=0.24 irradiance=1 pmpp=0.405 kva=0.405 conn=wye %cutin=0.1 %cutout=0.1 vmaxpu=1.2
new pvsystem.Load.80_27825572509632_13_091431650933435_load_pv phases=1 bus1=80_2783851379038_13_091514088159265_node_secondary_17.3.0 kv=0.24 irradiance=1 pmpp=0.825 kva=0.825 conn=wye %cutin=0.1 %cutout=0.1 vmaxpu=1.2
new pvsystem.Load.80_26738114999999_13_074894650000001_load_pv phases=1 bus1=80_26735198652376_13_074941434950347__secondary_13_node.2.0 kv=0.24 irradiance=1 pmpp=0.51 kva=0.51 conn=wye %cutin=0.1 %cutout=0.1 vmaxpu=1.2
new pvsystem.Load.80_27903875000001_13_087118150000002_load_pv phases=1 bus1=80_27896490653065_13_087142305765667_node_secondary_9.3.0 kv=0.24 irradiance=1 pmpp=0.45 kva=0.45 conn=wye %cutin=0.1 %cutout=0.1 vmaxpu=1.2
new pvsystem.Load.80_26668262270928_13_08936157600737_load_pv phases=1 bus1=80_26653364439568_13_089401092304765_node_secondary_4.2.0 kv=0.24 irradiance=1 pmpp=0.78 kva=0.78 conn=wye %cutin=0.1 %cutout=0.1 vmaxpu=1.2
new pvsystem.Load.80_26453617970819_13_083361391881793_load_pv phases=1 bus1=80_26449310172119_13_083429461810749__secondary_19_node.3.0 kv=0.24 irradiance=1 pmpp=1.44 kva=1.44 conn=wye %cutin=0.1 %cutout=0.1 vmaxpu=1.2
new pvsystem.Load.80_2614776_13_0804769_load_pv phases=1 bus1=80_26133156878767_13_08058125162748__secondary_10_node.3.0 kv=0.24 irradiance=1 pmpp=1.455 kva=1.455 conn=wye %cutin=0.1 %cutout=0.1 vmaxpu=1.2
new pvsystem.Load.80_27028141508106_13_087307674298152_load_pv phases=1 bus1=80_27043103977392_13_087128643291072__secondary_0_node.3.0 kv=0.24 irradiance=1 pmpp=3.045 kva=3.045 conn=wye %cutin=0.1 %cutout=0.1 vmaxpu=1.2
new pvsystem.Load.80_2670373_13_0804479_load_pv phases=1 bus1=80_2671564864982_13_080446399215472__secondary_6_node.2.0 kv=0.24 irradiance=1 pmpp=0.87 kva=0.87 conn=wye %cutin=0.1 %cutout=0.1 vmaxpu=1.2
new pvsystem.Load.80_27588715064354_13_08276335183517_load_pv phases=1 bus1=80_27589173735964_13_082790747672425__secondary_18_node.2.0 kv=0.24 irradiance=1 pmpp=1.365 kva=1.365 conn=wye %cutin=0.1 %cutout=0.1 vmaxpu=1.2
new pvsystem.Load.80_27596805_13_091943500000001_load_pv phases=1 bus1=80_2760009057824_13_091817098274737__secondary_15_node.1.0 kv=0.24 irradiance=1 pmpp=0.975 kva=0.975 conn=wye %cutin=0.1 %cutout=0.1 vmaxpu=1.2
new pvsystem.Load.80_27802_13_0841508_load_pv phases=1 bus1=80_2778981_13_0840791_node_secondary_18.2.0 kv=0.24 irradiance=1 pmpp=1.455 kva=1.455 conn=wye %cutin=0.1 %cutout=0.1 vmaxpu=1.2
new pvsystem.Load.80_27720169999999_13_091588549999999_load_pv phases=1 bus1=80_2773194615648_13_091520681032982__secondary_15_node.3.0 kv=0.24 irradiance=1 pmpp=0.555 kva=0.555 conn=wye %cutin=0.1 %cutout=0.1 vmaxpu=1.2
new pvsystem.Load.80_27916407730828_13_087827808225269_load_pv phases=1 bus1=80_27904821306129_13_087715011531333_node_secondary_9.1.0 kv=0.24 irradiance=1 pmpp=0.675 kva=0.675 conn=wye %cutin=0.1 %cutout=0.1 vmaxpu=1.2
new pvsystem.Load.80_2692131_13_0832266_load_pv phases=1 bus1=80_26910244672972_13_08329167499725_node_secondary_1.1.0 kv=0.24 irradiance=1 pmpp=0.915 kva=0.915 conn=wye %cutin=0.1 %cutout=0.1 vmaxpu=1.2
new pvsystem.Load.80_26525410369774_13_086305077117114_load_pv phases=1 bus1=80_26510333496275_13_08618750204271__secondary_19_node.3.0 kv=0.24 irradiance=1 pmpp=0.87 kva=0.87 conn=wye %cutin=0.1 %cutout=0.1 vmaxpu=1.2
new pvsystem.Load.80_26605322479355_13_091856846207444_load_pv phases=1 bus1=80_265979_13_0917759_node_secondary_5.3.0 kv=0.24 irradiance=1 pmpp=0.27 kva=0.27 conn=wye %cutin=0.1 %cutout=0.1 vmaxpu=1.2
new pvsystem.Load.80_27008957367119_13_083553871974052_load_pv phases=1 bus1=80_27006817537524_13_08342497710386_node_secondary_1.2.0 kv=0.24 irradiance=1 pmpp=1.14 kva=1.14 conn=wye %cutin=0.1 %cutout=0.1 vmaxpu=1.2
new pvsystem.Load.80_2787287970048_13_0850312194483_load_pv phases=1 bus1=80_27882357127099_13_085210780041729_node_secondary_18.1.0 kv=0.24 irradiance=1 pmpp=0.15 kva=0.15 conn=wye %cutin=0.1 %cutout=0.1 vmaxpu=1.2
new pvsystem.Load.80_27695703227403_13_08825771982408_load_pv phases=1 bus1=80_27687959353136_13_088401606857321__secondary_2_node.2.0 kv=0.24 irradiance=1 pmpp=2.385 kva=2.385 conn=wye %cutin=0.1 %cutout=0.1 vmaxpu=1.2
new pvsystem.Load.80_26165786335986_13_085869381722178_load_pv phases=1 bus1=80_2615361158902_13_085815__secondary_12_node.1.0 kv=0.24 irradiance=1 pmpp=0.99 kva=0.99 conn=wye %cutin=0.1 %cutout=0.1 vmaxpu=1.2
new pvsystem.Load.80_26805116215387_13_085923881277331_load_pv phases=1 bus1=80_26808832820949_13_086098575551741_node_secondary_0.1.0 kv=0.24 irradiance=1 pmpp=3.645 kva=3.645 conn=wye %cutin=0.1 %cutout=0.1 vmaxpu=1.2
new pvsystem.Load.80_26613334441697_13_087632526078327_load_pv phases=1 bus1=80_2659222_13_0875999_node_secondary_4.2.0 kv=0.24 irradiance=1 pmpp=1.365 kva=1.365 conn=wye %cutin=0.1 %cutout=0.1 vmaxpu=1.2
new pvsystem.Load.80_27648450711237_13_09260747265445_load_pv phases=1 bus1=80_276330544728_13_092706350000002__secondary_15_node.3.0 kv=0.24 irradiance=1 pmpp=1.875 kva=1.875 conn=wye %cutin=0.1 %cutout=0.1 vmaxpu=1.2
new pvsystem.Load.80_27476018515276_13_076069420640795_load_pv phases=1 bus1=80_27460773333333_13_07610888919409__secondary_11_node.1.0 kv=0.24 irradiance=1 pmpp=0.345 kva=0.345 conn=wye %cutin=0.1 %cutout=0.1 vmaxpu=1.2
new pvsystem.Load.80_27611772463669_13_089564287952657_load_pv phases=1 bus1=80_27601116505433_13_089443826530596_node_secondary_2.2.0 kv=0.24 irradiance=1 pmpp=2.13 kva=2.13 conn=wye %cutin=0.1 %cutout=0.1 vmaxpu=1.2
new pvsystem.Load.80_26649760000001_13_0876971_load_pv phases=1 bus1=80_2664616_13_0878321_node_secondary_4.2.0 kv=0.24 irradiance=1 pmpp=0.87 kva=0.87 conn=wye %cutin=0.1 %cutout=0.1 vmaxpu=1.2
new pvsystem.Load.80_2657963_13_088329300000002_load_pv phases=1 bus1=80_26591608046044_13_088434473123256_node_secondary_4.3.0 kv=0.24 irradiance=1 pmpp=0.645 kva=0.645 conn=wye %cutin=0.1 %cutout=0.1 vmaxpu=1.2
new pvsystem.Load.80_2738359_13_075147849999997_load_pv phases=1 bus1=80_27398832666667_13_075217132710547__secondary_11_node.2.0 kv=0.24 irradiance=1 pmpp=0.99 kva=0.99 conn=wye %cutin=0.1 %cutout=0.1 vmaxpu=1.2
new pvsystem.Load.80_27886181901152_13_0897397966394_load_pv phases=1 bus1=80_27892657749574_13_089591672274485__secondary_17_node.2.0 kv=0.24 irradiance=1 pmpp=0.975 kva=0.975 conn=wye %cutin=0.1 %cutout=0.1 vmaxpu=1.2
new pvsystem.Load.80_26108432244456_13_08228874559245_load_pv phases=1 bus1=80_26103103439384_13_082380968128675__secondary_10_node.3.0 kv=0.24 irradiance=1 pmpp=2.235 kva=2.235 conn=wye %cutin=0.1 %cutout=0.1 vmaxpu=1.2
new pvsystem.Load.80_26918007777184_13_091277628396611_load_pv phases=1 bus1=80_2693836879239_13_091366643576746_node_secondary_14.3.0 kv=0.24 irradiance=1 pmpp=0.615 kva=0.615 conn=wye %cutin=0.1 %cutout=0.1 vmaxpu=1.2
new pvsystem.Load.80_26706295465212_13_077832442821126_load_pv phases=1 bus1=80_2672152_13_0778107_node_secondary_13.3.0 kv=0.24 irradiance=1 pmpp=1.86 kva=1.86 conn=wye %cutin=0.1 %cutout=0.1 vmaxpu=1.2
new pvsystem.Load.80_26845555940925_13_092449413154965_load_pv phases=1 bus1=80_26858092666666_13_092499901570347__secondary_14_node.1.0 kv=0.24 irradiance=1 pmpp=6.69 kva=6.69 conn=wye %cutin=0.1 %cutout=0.1 vmaxpu=1.2
new pvsystem.Load.80_26667468296174_13_092464875783248_load_pv phases=1 bus1=80_26665085049554_13_092428615000001__secondary_5_node.1.0 kv=0.24 irradiance=1 pmpp=0.735 kva=0.735 conn=wye %cutin=0.1 %cutout=0.1 vmaxpu=1.2
new pvsystem.Load.80_27591785_13_090353449999999_load_pv phases=1 bus1=80_27596402818565_13_090284166840068_node_secondary_15.3.0 kv=0.24 irradiance=1 pmpp=0.945 kva=0.945 conn=wye %cutin=0.1 %cutout=0.1 vmaxpu=1.2
new pvsystem.Load.80_27938007224725_13_091516645489838_load_pv phases=1 bus1=80_2792904_13_0915716_node_secondary_17.2.0 kv=0.24 irradiance=1 pmpp=0.855 kva=0.855 conn=wye %cutin=0.1 %cutout=0.1 vmaxpu=1.2
new pvsystem.Load.80_27504533045747_13_085066884773456_load_pv phases=1 bus1=80_27499159572368_13_084945681379386__secondary_18_node.3.0 kv=0.24 irradiance=1 pmpp=33.28 kva=33.28 conn=wye %cutin=0.1 %cutout=0.1 vmaxpu=1.2
new pvsystem.Load.80_2675011_13_090687099999995_load_pv phases=1 bus1=80_26760907557882_13_090827710505492_node_secondary_5.3.0 kv=0.24 irradiance=1 pmpp=0.825 kva=0.825 conn=wye %cutin=0.1 %cutout=0.1 vmaxpu=1.2
new pvsystem.Load.80_27462112150639_13_076419381010707_load_pv phases=1 bus1=80_27460773333333_13_076406141355273__secondary_11_node.2.0 kv=0.24 irradiance=1 pmpp=1.395 kva=1.395 conn=wye %cutin=0.1 %cutout=0.1 vmaxpu=1.2
new pvsystem.Load.80_26987879999999_13_08403_load_pv phases=1 bus1=80_2697754_13_0838969_node_secondary_1.3.0 kv=0.24 irradiance=1 pmpp=0.99 kva=0.99 conn=wye %cutin=0.1 %cutout=0.1 vmaxpu=1.2
new pvsystem.Load.80_26526785_13_0843767_load_pv phases=1 bus1=80_26521229075891_13_084471767234277_node_secondary_19.3.0 kv=0.24 irradiance=1 pmpp=0.555 kva=0.555 conn=wye %cutin=0.1 %cutout=0.1 vmaxpu=1.2
new pvsystem.Load.80_27619095023418_13_092654426128494_load_pv phases=1 bus1=80_276330544728_13_092706350000002__secondary_15_node.2.0 kv=0.24 irradiance=1 pmpp=0.435 kva=0.435 conn=wye %cutin=0.1 %cutout=0.1 vmaxpu=1.2
new pvsystem.Load.80_26836954253106_13_082247992636571_load_pv phases=1 bus1=80_26858177277248_13_08219821727686_node_secondary_6.1.0 kv=0.24 irradiance=1 pmpp=0.87 kva=0.87 conn=wye %cutin=0.1 %cutout=0.1 vmaxpu=1.2
...
